parallel/no_load/100pc/TNB_DUMA_VLN.Txt

SYMMETRICAL COMPONENT VOLTAGES BY BUS (for 3-phase buses)

Bus               Mag:   V1 (kV)    p.u.     V2 (kV)   %V2/V1    V0 (kV)    %V0/V1

ppu_duma_33kv        18.73     0.9832  7.551E-009  4.031E-008 1.239E-009 6.616E-009
ppu_duma_11kv        5.893     0.9278  6.167E-009  1.047E-007 1.212E-008 2.057E-007
rpplngi2             6.058      0.954  6.166E-009  1.018E-007 1.236E-008 2.041E-007
pdtjlnmasjid         6.184     0.9737  6.168E-009  9.974E-008 1.255E-008 2.029E-007
bella                6.268     0.9869  6.169E-009  9.843E-008 1.267E-008 2.022E-007
pstpdgn               6.31     0.9936  6.171E-009  9.779E-008 1.273E-008 2.018E-007
pamdra                5.91     0.9306  6.165E-009  1.043E-007 1.215E-008 2.056E-007
duma4                5.969     0.9399  6.163E-009  1.033E-007 1.35E-008 2.261E-007
plsdra                 6.1     0.9604  6.176E-009  1.012E-007 1.608E-008 2.635E-007
ssu_uptwres_ir1      6.121     0.9639  6.171E-009  1.008E-007 1.612E-008 2.633E-007
atria_1               6.12     0.9636  6.164E-009  1.007E-007 1.244E-008 2.033E-007
hawker               6.158     0.9697  6.111E-009  9.923E-008 1.253E-008 2.035E-007
prmte                6.047     0.9522  6.122E-009  1.012E-007 1.534E-008 2.536E-007
prmta                6.074     0.9564  6.117E-009  1.007E-007 1.538E-008 2.533E-007
pmontb               6.094     0.9596  6.119E-009  1.004E-007 1.578E-008 2.59E-007
duma7                5.953     0.9374  6.647E-009  1.116E-007 1.257E-008 2.111E-007
haus                 6.075     0.9566  7.329E-009  1.206E-007 8.854E-008 1.457E-006
duma6                6.405      1.008  1.345E-008   2.1E-007 3.893E-007 6.079E-006
duma13               6.701      1.055  2.178E-008  3.25E-007 7.123E-007 1.063E-005
ssu_duma5_im2         6.74      1.061  2.33E-008  3.457E-007 7.164E-007 1.063E-005
plngi_b              5.981     0.9417  6.166E-009  1.031E-007 1.224E-008 2.046E-007
plngi_d              6.025     0.9486  6.165E-009  1.023E-007 1.23E-008 2.041E-007
pdtlitrak            6.278     0.9885  6.111E-009  9.735E-008 1.295E-008 2.062E-007
duma12               6.437      1.014  6.087E-009  9.457E-008 1.329E-008 2.065E-007
tmngh4               6.587      1.037  6.096E-009  9.254E-008 1.706E-008 2.59E-007
ssu_tmegah3_ir1      6.647      1.047  6.098E-009  9.174E-008 1.862E-008 2.801E-007
tmngh2               6.673      1.051  6.099E-009  9.139E-008 1.931E-008 2.894E-007
sprk9                6.262     0.9861  6.16E-009  9.837E-008 1.27E-008 2.029E-007
bomba                6.283     0.9894  6.165E-009  9.811E-008 1.306E-008 2.078E-007
sprk8                6.336     0.9977  6.175E-009  9.746E-008 1.398E-008 2.206E-007
ssu_uptwres_im2      5.958     0.9381  6.156E-009  1.033E-007 1.325E-008 2.225E-007
maybank              6.045     0.9519  6.149E-009  1.017E-007 1.339E-008 2.214E-007
duma8                6.062     0.9545  6.152E-009  1.015E-007 1.365E-008 2.252E-007
ssu_dsarcntr_ir1     5.937     0.9349  6.166E-009  1.039E-007 1.218E-008 2.051E-007
duma9                6.176     0.9724  6.168E-009  9.988E-008 1.255E-008 2.031E-007
duma1                6.293     0.9908  6.171E-009  9.807E-008 1.272E-008 2.021E-007
elite                6.335     0.9974  6.172E-009  9.744E-008 1.278E-008 2.018E-007
duma10               6.099     0.9604  6.165E-009  1.011E-007 1.241E-008 2.034E-007
balaipolis           6.101     0.9607  6.165E-009  1.01E-007 1.241E-008 2.034E-007
ppu_duma_vcb1            0          0          0          0         0         0
